*Heading
** Job name: UT_YXZ_M Model name: UT_YXZ_M
** Generated by: Abaqus/CAE 2024
*Preprint, echo=NO, model=NO, history=NO, contact=NO
**
** PARTS
**
*Part, name=UT_YXZ_M
*Node
      1,          1.5,   2.65904117,          0.5
      2,          1.5,   2.65904117,           0.
      3,          1.5,           5.,         0.25
      4,          1.5,           5.,           0.
      5,          1.5,           5.,          0.5
      6,           0.,   2.65904117,           0.
      7,           0.,   2.65904117,          0.5
      8,           0.,           5.,          0.5
      9,           0.,           5.,         0.25
     10,           0.,           5.,           0.
     11,          1.5,          2.5,           0.
     12,         0.75,          2.5,           0.
     13,  0.605773926,   2.45420289,           0.
     14,          0.5,         2.25,           0.
     15,          0.5,           0.,           0.
     16,           0.,           0.,           0.
     17,           0.,           0.,          0.5
     18,          0.5,           0.,          0.5
     19,          0.5,         2.25,          0.5
     20,  0.605773926,   2.45420289,          0.5
** ... 3490 like lines cut
*Element, type=C3D8R
  1,   63,  373,   23,    1,  701, 1906,  899,  118
  2,  373,  374,   24,   23, 1906, 1907,  900,  899
  3,  374,  375,   25,   24, 1907, 1908,  901,  900
  4,  375,   26,    2,   25, 1908,  498,   64,  901
  5,   62,  376,  373,   63,  702, 1909, 1906,  701
  6,  376,  377,  374,  373, 1909, 1910, 1907, 1906
  7,  377,  378,  375,  374, 1910, 1911, 1908, 1907
  8,  378,   27,   26,  375, 1911,  497,  498, 1908
  9,   61,  379,  376,   62,  703, 1912, 1909,  702
 10,  379,  380,  377,  376, 1912, 1913, 1910, 1909
 11,  380,  381,  378,  377, 1913, 1914, 1911, 1910
 12,  381,   28,   27,  378, 1914,  496,  497, 1911
 13,   60,  382,  379,   61,  704, 1915, 1912,  703
 14,  382,  383,  380,  379, 1915, 1916, 1913, 1912
 15,  383,  384,  381,  380, 1916, 1917, 1914, 1913
 16,  384,   29,   28,  381, 1917,  495,  496, 1914
 17,   59,  385,  382,   60,  705, 1918, 1915,  704
 18,  385,  386,  383,  382, 1918, 1919, 1916, 1915
 19,  386,  387,  384,  383, 1919, 1920, 1917, 1916
 20,  387,   30,   29,  384, 1920,  494,  495, 1917
** ... 2472 like lines cut
*Nset, nset=_PickedSet14, internal, generate
    1,  3510,     1
*Elset, elset=_PickedSet14, internal, generate
    1,  2492,     1
** Section: Section-1
*Solid Section, elset=_PickedSet14, material=AISI316L
,
*End Part
**  
**
** ASSEMBLY
**
*Assembly, name=Assembly
**  
*Instance, name=UT_YXZ_M, part=UT_YXZ_M
*End Instance
**  
*Nset, nset=DISP, instance=UT_YXZ_M
 9,
*Nset, nset=LOAD, instance=UT_YXZ_M
   1,   2,   3,   4,   5,   6,   7,   8,   9,  10,  23,  24,  25,  26,  27,  28
  29,  30,  31,  32,  33,  34,  35,  36,  37,  38,  39,  40,  41,  42,  43,  44
  45,  46,  47,  48,  49,  50,  51,  52,  53,  54,  55,  56,  57,  58,  59,  60
  61,  62,  63,  64,  65,  66,  67,  68,  69,  70,  71,  72,  73,  74,  75,  76
  77,  78,  79,  80,  81,  82,  83,  84,  85,  97,  98,  99, 100, 101, 102, 103
 104, 105, 106, 107, 108, 109, 110, 111, 112, 113, 114, 115, 116, 117, 118, 119
 120, 121, 122, 123, 124, 125, 126, 127, 128, 129, 130, 131, 132, 133, 134, 135
 136, 137, 138, 139, 140, 141, 142, 143, 144, 145, 146, 147, 148, 149, 150, 151
 152, 153, 154, 155, 156, 157, 158, 159, 373, 374, 375, 376, 377, 378, 379, 380
 381, 382, 383, 384, 385, 386, 387, 388, 389, 390, 391, 392, 393, 394, 395, 396
 397, 398, 399, 400, 401, 402, 403, 404, 405, 406, 407, 408, 409, 410, 411, 412
 413, 414, 415, 416, 417, 418, 419, 420, 421, 422, 423, 424, 425, 426, 427, 428
 429, 430, 431, 432, 433, 434, 435, 436, 437, 438, 439, 440, 441, 442, 443, 444
 445, 446, 447, 448, 449, 450, 451, 452, 453, 454, 455, 456, 457, 458, 459, 460
 461, 462, 463, 464, 465, 466, 467, 468, 469, 470, 471, 472, 473, 474, 475, 476
 477, 478, 479, 480, 481, 482, 483, 484, 485, 486, 487, 488, 489, 490, 491, 492
 493, 494, 495, 496, 497, 498, 499, 500, 501, 502, 503, 504, 505, 506, 507, 508
 509, 510, 511, 512, 513, 514, 515, 516, 517, 518, 519, 520, 521, 522, 523, 524
 525, 526, 527, 528, 529, 530, 531, 532, 533, 534, 535, 536, 537, 538, 539, 540
 541, 542, 543, 544, 545, 546, 547, 548, 549, 550, 551, 552, 553, 554, 555, 556
** ... 20 like lines cut
*Elset, elset=LOAD, instance=UT_YXZ_M
   1,   2,   3,   4,   5,   6,   7,   8,   9,  10,  11,  12,  13,  14,  15,  16
  17,  18,  19,  20,  21,  22,  23,  24,  25,  26,  27,  28,  29,  30,  31,  32
  33,  34,  35,  36,  37,  38,  39,  40,  41,  42,  43,  44,  45,  46,  47,  48
  49,  50,  51,  52,  53,  54,  55,  56,  57,  58,  59,  60,  61,  62,  63,  64
  65,  66,  67,  68,  69,  70,  71,  72,  73,  74,  75,  76,  77,  80,  81,  84
  85,  88,  89,  92,  93,  96,  97, 100, 101, 104, 105, 108, 109, 112, 113, 116
 117, 120, 121, 124, 125, 128, 129, 132, 133, 136, 137, 140, 141, 144, 145, 148
 149, 152, 153, 156, 157, 160, 161, 164, 165, 168, 169, 172, 173, 176, 177, 180
 181, 184, 185, 188, 189, 192, 193, 196, 197, 200, 201, 204, 205, 208, 209, 212
 213, 216, 217, 220, 221, 224, 225, 228, 229, 232, 233, 236, 237, 240, 241, 244
 245, 248, 249, 252, 253, 256, 257, 260, 261, 264, 265, 268, 269, 272, 273, 276
 277, 280, 281, 284, 285, 288, 289, 292, 293, 296, 297, 300, 301, 304, 305, 308
 309, 312, 313, 316, 317, 320, 321, 324, 325, 328, 329, 332, 333, 336, 337, 340
 341, 344, 345, 348, 349, 352, 353, 356, 357, 360, 361, 364, 365, 368, 369, 372
 373, 376, 377, 380, 381, 384, 385, 388, 389, 392, 393, 396, 397, 400, 401, 404
 405, 408, 409, 412, 413, 416, 417, 420, 421, 424, 425, 428, 429, 432, 433, 436
 437, 440, 441, 444, 445, 448, 449, 452, 453, 456, 457, 460, 461, 464, 465, 468
 469, 472, 473, 476, 477, 480, 481, 484, 485, 488, 489, 492, 493, 496, 497, 500
 501, 504, 505, 508, 509, 512, 513, 516, 517, 520, 521, 524, 525, 528, 529, 532
 533, 536, 537, 540, 541, 544, 545, 548, 549, 552, 553, 556, 557, 560, 561, 564
** ... 14 like lines cut
*Nset, nset=RF, instance=UT_YXZ_M
 9,
*Nset, nset=XSYM, instance=UT_YXZ_M
    6,    7,    8,    9,   10,   16,   17,  119,  120,  121,  122,  123,  124,  125,  126,  127
  128,  129,  130,  131,  132,  133,  134,  135,  136,  137,  138,  139,  140,  141,  142,  143
  144,  145,  146,  147,  148,  149,  150,  151,  152,  153,  154,  155,  156,  157,  158,  159
  218,  219,  220,  221,  222,  223,  224,  225,  226,  227,  228,  229,  230,  231,  232,  233
  234,  235,  236,  237,  238,  239,  240,  241,  242,  243,  244,  245,  246,  247,  248,  249
  250,  251,  252,  253,  254,  255,  256,  257,  258,  268,  269,  270,  274,  275,  276,  277
  278,  279,  280,  281,  282,  283,  284,  285,  286,  287,  288,  289,  290,  291,  292,  293
  294,  295,  296,  297,  298,  299,  300,  301,  302,  303,  304,  305,  306,  307,  308,  309
  310,  311,  312,  313,  314,  427,  428,  429,  430,  431,  432,  433,  434,  435,  436,  437
  438,  439,  440,  441,  442,  443,  444,  445,  446,  447,  448,  449,  450,  451,  452,  453
  454,  455,  456,  457,  458,  459,  460,  461,  462,  463,  464,  465,  466,  467,  468,  469
  470,  471,  472,  473,  474,  475,  476,  477,  478,  479,  480, 1747, 1748, 1749, 1750, 1751
 1752, 1753, 1754, 1755, 1756, 1757, 1758, 1759, 1760, 1761, 1762, 1763, 1764, 1765, 1766, 1767
 1768, 1769, 1770, 1771, 1772, 1773, 1774, 1775, 1776, 1777, 1778, 1779, 1780, 1781, 1782, 1783
 1784, 1785, 1786, 1787, 1788, 1789, 1790, 1791, 1792, 1793, 1794, 1795, 1796, 1797, 1798, 1799
 1800, 1801, 1802, 1803, 1804, 1805, 1806, 1807, 1808, 1809, 1810, 1811, 1812, 1813, 1814, 1815
 1816, 1817, 1818, 1819, 1820, 1821, 1822, 1823, 1824, 1825, 1826, 1827, 1828, 1829, 1830, 1831
 1832, 1833, 1834, 1835, 1836, 1837, 1838, 1839, 1840, 1841, 1842, 1843, 1844, 1845, 1846, 1847
 1848, 1849, 1850, 1851, 1852, 1853, 1854, 1855, 1856, 1857, 1858, 1859, 1860, 1861, 1862, 1863
 1864, 1865, 1866, 1867, 1868, 1869
*Elset, elset=XSYM, instance=UT_YXZ_M
  837,  838,  839,  840,  841,  842,  843,  844,  845,  846,  847,  848,  849,  850,  851,  852
  853,  854,  855,  856,  857,  858,  859,  860,  861,  862,  863,  864,  865,  866,  867,  868
  869,  870,  871,  872,  873,  874,  875,  876,  877,  878,  879,  880,  881,  882,  883,  884
  885,  886,  887,  888,  889,  890,  891,  892,  893,  894,  895,  896,  897,  898,  899,  900
  901,  902,  903,  904,  905,  906,  907,  908,  909,  910,  911,  912,  918,  919,  920,  921
  942,  943,  944,  945,  946,  947,  948,  949,  950,  951,  952,  953,  954,  955,  958,  960
  961,  963,  965,  967,  969,  980,  984,  988,  992,  996, 1000, 1004, 1005, 1010, 1014, 1016
 1017, 1018, 1058, 1059, 1077, 1103, 1313, 1314, 1315, 1316, 1337, 1338, 1339, 1340, 1341, 1342
 1343, 1344, 1345, 1346, 1347, 1348, 1349, 1350, 1353, 1355, 1356, 1358, 1360, 1362, 1364, 1375
 1379, 1383, 1387, 1391, 1395, 1399, 1400, 1405, 1409, 1411, 1412, 1413, 1453, 1454, 1472, 1498
 1708, 1709, 1710, 1711, 1732, 1733, 1734, 1735, 1736, 1737, 1738, 1739, 1740, 1741, 1742, 1743
 1744, 1745, 1748, 1750, 1751, 1753, 1755, 1757, 1759, 1770, 1774, 1778, 1782, 1786, 1790, 1794
 1795, 1800, 1804, 1806, 1807, 1808, 1848, 1849, 1867, 1893, 2103, 2104, 2105, 2106, 2127, 2128
 2129, 2130, 2131, 2132, 2133, 2134, 2135, 2136, 2137, 2138, 2139, 2140, 2143, 2145, 2146, 2148
 2150, 2152, 2154, 2165, 2169, 2173, 2177, 2181, 2185, 2189, 2190, 2195, 2199, 2201, 2202, 2203
 2243, 2244, 2262, 2288
*Nset, nset=YSIM, instance=UT_YXZ_M
   15,   16,   17,   18,  211,  212,  213,  214,  215,  216,  217,  265,  266,  267,  268,  269
  270,  315,  316,  317,  318,  319,  320,  321, 1726, 1727, 1728, 1729, 1730, 1731, 1732, 1733
 1734, 1735, 1736, 1737, 1738, 1739, 1740, 1741, 1742, 1743, 1744, 1745, 1746
*Elset, elset=YSIM, instance=UT_YXZ_M
  971,  972,  973,  976,  977,  978,  979,  980, 1366, 1367, 1368, 1371, 1372, 1373, 1374, 1375
 1761, 1762, 1763, 1766, 1767, 1768, 1769, 1770, 2156, 2157, 2158, 2161, 2162, 2163, 2164, 2165
*Elset, elset=__PickedSurf66_S2, internal, instance=UT_YXZ_M, generate
 837,  912,    1
*Elset, elset=__PickedSurf66_S6, internal, instance=UT_YXZ_M, generate
   1,  909,    4
*Elset, elset=__PickedSurf66_S1, internal, instance=UT_YXZ_M, generate
  1,  76,   1
*Elset, elset=__PickedSurf66_S4, internal, instance=UT_YXZ_M, generate
   4,  912,    4
*Surface, type=ELEMENT, name=_PickedSurf66, internal
__PickedSurf66_S2, S2
__PickedSurf66_S6, S6
__PickedSurf66_S4, S4
__PickedSurf66_S1, S1
** Constraint: Constraint-1
*Coupling, constraint name=Constraint-1, ref node=RF, surface=_PickedSurf66
*Kinematic
*End Assembly
** 
** MATERIALS
** 
*Material, name=AISI316L
*Elastic
150000., 0.33
*Plastic
 333.899,          0.
  338.08, 0.000208993
  349.77, 0.000945214
 364.344,  0.00228514
 377.434,  0.00427492
 387.705,  0.00694894
 395.798,    0.010335
 403.401,   0.0144566
 411.214,   0.0193342
 419.247,   0.0249858
 428.076,    0.031428
 437.404,   0.0386755
 447.672,   0.0467421
 459.054,   0.0556406
 471.288,   0.0653829
 484.057,     0.07598
  497.69,   0.0874426
 511.874,   0.0997806
 527.068,    0.113003
 542.225,     0.12712
** ... 30 like lines cut
** ----------------------------------------------------------------
** 
** STEP: Step-1
** 
*Step, name=Step-1, nlgeom=YES, inc=1000000
*Static
0.001, 1., 1e-08, 0.01
** 
** BOUNDARY CONDITIONS
** 
** Name: BC-3 Type: Displacement/Rotation
*Boundary
RF, 2, 2, 1.57755
** Name: BC-4 Type: Symmetry/Antisymmetry/Encastre
*Boundary
YSIM, YSYMM
** Name: BC-5 Type: Symmetry/Antisymmetry/Encastre
*Boundary
RF, YASYMM
** Name: BC-6 Type: Symmetry/Antisymmetry/Encastre
*Boundary
XSYM, XSYMM
** 
** OUTPUT REQUESTS
** 
*Restart, write, frequency=0
** 
** FIELD OUTPUT: F-Output-1
** 
*Output, field
*Node Output
RF, U
*Element Output, directions=YES
LE, MISES, PE, PEEQ, S, TRIAX
** 
** HISTORY OUTPUT: H-Output-1
** 
*Output, history
*Node Output, nset=LOAD
RF2, 
*End Step
